CC1=C(C)C=C(N2NC(C)=C(N=NC3=CC=CC(C4=CC(C(=O)O)=CC=C4)=C3O)C2=O)C=C1
                    3D
 Schrodinger Suite 2021-1.
 54 57  0  0  1  0            999 V2000
   -7.0880    3.0903   -2.2817 C   0  0  0  0  0  0
   -5.7835    2.4567   -1.8316 C   0  0  0  0  0  0
   -5.8146    1.3917   -0.9085 C   0  0  0  0  0  0
   -4.6201    0.7881   -0.4742 C   0  0  0  0  0  0
   -3.3716    1.2460   -0.9509 C   0  0  0  0  0  0
   -2.1718    0.6174   -0.5068 N   0  0  0  0  0  0
   -2.1455   -0.7105   -0.1244 N   0  0  0  0  0  0
   -0.8823   -1.0479    0.2616 C   0  0  0  0  0  0
   -0.5329   -2.4568    0.6936 C   0  0  0  0  0  0
   -0.1121    0.0388    0.1563 C   0  0  0  0  0  0
    1.2517    0.0052    0.4806 N   0  0  0  0  0  0
    1.9112    1.0595    0.4005 N   0  0  0  0  0  0
    3.2899    1.0152    0.7342 C   0  0  0  0  0  0
    3.9400   -0.1804    1.1277 C   0  0  0  0  0  0
    5.3066   -0.1668    1.4535 C   0  0  0  0  0  0
    6.0345    1.0336    1.3864 C   0  0  0  0  0  0
    5.4147    2.2390    0.9914 C   0  0  0  0  0  0
    6.2212    3.4741    0.9310 C   0  0  0  0  0  0
    6.2888    4.2433   -0.2507 C   0  0  0  0  0  0
    7.0656    5.4149   -0.3024 C   0  0  0  0  0  0
    7.7920    5.8311    0.8279 C   0  0  0  0  0  0
    7.7468    5.0752    2.0219 C   0  0  0  0  0  0
    8.5184    5.4996    3.2424 C   0  0  0  0  0  0
    8.4689    4.8716    4.2990 O   0  0  0  0  0  0
    9.2731    6.6254    3.0779 O   0  5  0  0  0  0
    6.9592    3.9014    2.0574 C   0  0  0  0  0  0
    4.0326    2.2197    0.6702 C   0  0  0  0  0  0
    3.3993    3.3786    0.3089 O   0  0  0  0  0  0
   -0.9359    1.1453   -0.3343 C   0  0  0  0  0  0
   -0.6019    2.3134   -0.5347 O   0  0  0  0  0  0
   -3.3444    2.3077   -1.8852 C   0  0  0  0  0  0
   -4.5394    2.9160   -2.3253 C   0  0  0  0  0  0
   -4.4681    4.0557   -3.3266 C   0  0  0  0  0  0
   -7.9305    2.5892   -1.7825 H   0  0  0  0  0  0
   -7.1911    2.9827   -3.3716 H   0  0  0  0  0  0
   -7.0875    4.1580   -2.0171 H   0  0  0  0  0  0
   -6.7583    1.0312   -0.5262 H   0  0  0  0  0  0
   -4.6746   -0.0225    0.2376 H   0  0  0  0  0  0
   -1.4342   -3.0863    0.6549 H   0  0  0  0  0  0
   -0.1422   -2.4387    1.7217 H   0  0  0  0  0  0
    0.2313   -2.8686    0.0181 H   0  0  0  0  0  0
    3.4071   -1.1180    1.1884 H   0  0  0  0  0  0
    5.7984   -1.0798    1.7554 H   0  0  0  0  0  0
    7.0853    1.0252    1.6369 H   0  0  0  0  0  0
    5.7413    3.9328   -1.1285 H   0  0  0  0  0  0
    7.1055    5.9947   -1.2127 H   0  0  0  0  0  0
    8.3802    6.7344    0.7593 H   0  0  0  0  0  0
    6.9119    3.3130    2.9626 H   0  0  0  0  0  0
    2.3280    3.3652    0.0596 H   0  0  0  0  0  0
   -2.4037    2.6587   -2.2823 H   0  0  0  0  0  0
   -5.4851    4.4068   -3.5555 H   0  0  0  0  0  0
   -3.9854    3.7028   -4.2500 H   0  0  0  0  0  0
   -3.8820    4.8828   -2.8996 H   0  0  0  0  0  0
   -1.3387    3.0397   -0.9085 H   0  0  0  0  0  0
  1  2  1  0  0  0
  1 34  1  0  0  0
  1 35  1  0  0  0
  1 36  1  0  0  0
  2  3  2  0  0  0
  2 32  1  0  0  0
  3  4  1  0  0  0
  3 37  1  0  0  0
  4  5  2  0  0  0
  4 38  1  0  0  0
  5  6  1  0  0  0
  5 31  1  0  0  0
  6  7  1  0  0  0
  6 29  1  0  0  0
  7  8  2  0  0  0
  8  9  1  0  0  0
  8 10  1  0  0  0
  9 39  1  0  0  0
  9 40  1  0  0  0
  9 41  1  0  0  0
 10 11  1  0  0  0
 10 29  2  0  0  0
 11 12  2  3  0  0
 12 13  1  0  0  0
 13 14  2  0  0  0
 13 27  1  0  0  0
 14 15  1  0  0  0
 14 42  1  0  0  0
 15 16  2  0  0  0
 15 43  1  0  0  0
 16 17  1  0  0  0
 16 44  1  0  0  0
 17 18  1  0  0  0
 17 27  2  0  0  0
 18 19  2  0  0  0
 18 26  1  0  0  0
 19 20  1  0  0  0
 19 45  1  0  0  0
 20 21  2  0  0  0
 20 46  1  0  0  0
 21 22  1  0  0  0
 21 47  1  0  0  0
 22 23  1  0  0  0
 22 26  2  0  0  0
 23 24  2  0  0  0
 23 25  1  0  0  0
 26 48  1  0  0  0
 27 28  1  0  0  0
 28 49  1  0  0  0
 29 30  1  0  0  0
 30 54  1  0  0  0
 31 32  2  0  0  0
 31 50  1  0  0  0
 32 33  1  0  0  0
 33 51  1  0  0  0
 33 52  1  0  0  0
 33 53  1  0  0  0
M  CHG  1  25  -1
A   7
N   -0.631000
A  25
O   4.050000
A  49
H   9.894000
A  54
H   7.449000
M  END
> <References>
Generated with https://api.leruli.com/latest/references/BCE2020,BEG2019,rdkit/bibtex

> <s_m_source_file>
00_edta.sdf

> <i_m_source_file_index>
1

> <i_lp_mmshare_version>
53161

> <i_f3d_flags>
0

> <s_lp_Force_Field>
OPLS_2005

> <r_lp_Energy>
52.02332

> <b_lp_Chiralities_Consistent>
1

> <s_lp_Variant>
CC1=C(C)C=C(N2NC(C)=C(N=NC3=CC=CC(C4=CC(C(=O)O)=CC=C4)=C3O)C2=O)C=C1-1

> <s_epik_input>
W0NIM11jMVtjSF1bY0hdYyhbY0hdYzFbQ0gzXSktbjJbbkhdYyhbQ0gzXSljKGMyPU8pL049Ti9jM1tjSF1bY0hdW2NIXWMoYzNbT0hdKS1jNFtjSF1bY0hdW2NIXWMoW2NIXTQpQyg9TylbT0hd

> <s_epik_cmdline>
J2VwaWtfYXBwJywgJy1pbWFlJywgJzAxX2VkdGEubWFlJywgJy1vbWFlJywgJzAyX2VkdGFfd2l0aF9wa2EubWFlJywgJy1zY2FuJywgJy1wJywgJzAuMSc=

> <r_epik_Ionization_Penalty>
  0.1817

> <r_epik_Ionization_Penalty_Charging>
  0.0007

> <r_epik_Ionization_Penalty_Neutral>
  0.1811

> <r_epik_State_Penalty>
  0.2107

> <r_epik_Charging_Adjusted_Penalty>
0.211374952854791

> <i_epik_Tot_Q>
-1

> <i_epik_Tot_abs_Q>
1

> <r_epik_pKa_1>
 -0.631

> <i_epik_pKa_atom_1>
7

> <s_epik_pKa_identifier_1>
1H-pyrazole (protonation on N2) Lewis I

> <r_epik_pKa_2>
  4.050

> <i_epik_pKa_atom_2>
25

> <s_epik_pKa_identifier_2>
General Benzoic acids

> <r_epik_pKa_3>
  7.449

> <i_epik_pKa_atom_3>
30

> <s_epik_pKa_identifier_3>
5 Member Phenol analogues, c-OH

> <r_epik_pKa_4>
  9.894

> <i_epik_pKa_atom_4>
28

> <s_epik_pKa_identifier_4>
Phenol, c-OH

> <chembl_id>
test123

$$$$
